Circuit: * D:\Disco D\universita\magistrale\progettazione-low-power\progetti\progetto-1\ltspice\minimum_inverter_connected.asc

Warning: Pd = 0 is less than W.
Warning: Ps = 0 is less than W.
Warning: Pd = 0 is less than W.
Warning: Ps = 0 is less than W.
Direct Newton iteration for .op point succeeded.
.step run=1
.step run=2

Date: Thu Nov  2 00:15:45 2023
Total elapsed time: 0.375 seconds.

tnom = 27
temp = 27
method = modified trap
totiter = 3148
traniter = 3134
tranpoints = 1253
accept = 1198
rejected = 55
matrix size = 8
fillins = 0
solver = Normal
Avg thread counts: 3.2/3.2/3.2/1.9
Matrix Compiler1:      17 opcodes  0.2/0.3/[0.1]
Matrix Compiler2: 562 bytes object code size  0.2/0.5/[0.1]

