Circuit: * D:\Disco D\universita\magistrale\progettazione-low-power\progetti\progetto-1\ltspice\models\minimum-inverter\get_sizing\minimum_inverter_sizing_analysis.asc

WARNING: Node N001 is floating.

WARNING: Less than two connections to node n001.  This node is used by m1.
Warning: Pd = 0 is less than W.
Warning: Ps = 0 is less than W.
Warning: Pd = 0 is less than W.
Warning: Ps = 0 is less than W.
Direct Newton iteration for .op point succeeded.
.step w_min_pmos_analysis=1.2e-07
.step w_min_pmos_analysis=1.3e-07
.step w_min_pmos_analysis=1.4e-07
.step w_min_pmos_analysis=1.5e-07
.step w_min_pmos_analysis=1.6e-07
.step w_min_pmos_analysis=1.7e-07
.step w_min_pmos_analysis=1.8e-07
.step w_min_pmos_analysis=1.9e-07
.step w_min_pmos_analysis=2e-07
.step w_min_pmos_analysis=2.1e-07
.step w_min_pmos_analysis=2.2e-07
.step w_min_pmos_analysis=2.3e-07
.step w_min_pmos_analysis=2.4e-07
.step w_min_pmos_analysis=2.5e-07
.step w_min_pmos_analysis=2.6e-07
.step w_min_pmos_analysis=2.7e-07
.step w_min_pmos_analysis=2.8e-07
.step w_min_pmos_analysis=2.9e-07
.step w_min_pmos_analysis=3e-07
.step w_min_pmos_analysis=3.1e-07
.step w_min_pmos_analysis=3.2e-07
.step w_min_pmos_analysis=3.3e-07
.step w_min_pmos_analysis=3.4e-07
.step w_min_pmos_analysis=3.5e-07
.step w_min_pmos_analysis=3.6e-07


Measurement: w_min_pmos_analysis_values
  step	w_min_pmos_analysis
     1	1.2e-07
     2	1.3e-07
     3	1.4e-07
     4	1.5e-07
     5	1.6e-07
     6	1.7e-07
     7	1.8e-07
     8	1.9e-07
     9	2e-07
    10	2.1e-07
    11	2.2e-07
    12	2.3e-07
    13	2.4e-07
    14	2.5e-07
    15	2.6e-07
    16	2.7e-07
    17	2.8e-07
    18	2.9e-07
    19	3e-07
    20	3.1e-07
    21	3.2e-07
    22	3.3e-07
    23	3.4e-07
    24	3.5e-07
    25	3.6e-07

Measurement: rise_delay_connected
  step	rise_delay_connected	FROM	TO
     1	1.80376e-10	1.0015e-08	1.01954e-08
     2	1.64419e-10	1.0015e-08	1.01794e-08
     3	1.51378e-10	1.0015e-08	1.01664e-08
     4	1.39945e-10	1.0015e-08	1.01549e-08
     5	1.30472e-10	1.0015e-08	1.01455e-08
     6	1.22016e-10	1.0015e-08	1.0137e-08
     7	1.14767e-10	1.0015e-08	1.01298e-08
     8	1.08353e-10	1.0015e-08	1.01234e-08
     9	1.02605e-10	1.0015e-08	1.01176e-08
    10	9.73211e-11	1.0015e-08	1.01123e-08
    11	9.27746e-11	1.0015e-08	1.01078e-08
    12	8.85776e-11	1.0015e-08	1.01036e-08
    13	8.48159e-11	1.0015e-08	1.00998e-08
    14	8.13779e-11	1.0015e-08	1.00964e-08
    15	7.81652e-11	1.0015e-08	1.00932e-08
    16	7.52808e-11	1.0015e-08	1.00903e-08
    17	7.26217e-11	1.0015e-08	1.00876e-08
    18	7.01208e-11	1.0015e-08	1.00851e-08
    19	6.77563e-11	1.0015e-08	1.00828e-08
    20	6.56434e-11	1.0015e-08	1.00806e-08
    21	6.36717e-11	1.0015e-08	1.00787e-08
    22	6.18041e-11	1.0015e-08	1.00768e-08
    23	6.00287e-11	1.0015e-08	1.0075e-08
    24	5.83347e-11	1.0015e-08	1.00733e-08
    25	5.67684e-11	1.0015e-08	1.00718e-08

Measurement: fall_delay_connected
  step	fall_delay_connected	FROM	TO
     1	1.13062e-10	5.005e-09	5.11806e-09
     2	1.13422e-10	5.005e-09	5.11842e-09
     3	1.13781e-10	5.005e-09	5.11878e-09
     4	1.14138e-10	5.005e-09	5.11914e-09
     5	1.14494e-10	5.005e-09	5.11949e-09
     6	1.14849e-10	5.005e-09	5.11985e-09
     7	1.15203e-10	5.005e-09	5.1202e-09
     8	1.15556e-10	5.005e-09	5.12056e-09
     9	1.15909e-10	5.005e-09	5.12091e-09
    10	1.16259e-10	5.005e-09	5.12126e-09
    11	1.16609e-10	5.005e-09	5.12161e-09
    12	1.16957e-10	5.005e-09	5.12196e-09
    13	1.17304e-10	5.005e-09	5.1223e-09
    14	1.17668e-10	5.005e-09	5.12267e-09
    15	1.18322e-10	5.005e-09	5.12332e-09
    16	1.18671e-10	5.005e-09	5.12367e-09
    17	1.19018e-10	5.005e-09	5.12402e-09
    18	1.19365e-10	5.005e-09	5.12437e-09
    19	1.19711e-10	5.005e-09	5.12471e-09
    20	1.20055e-10	5.005e-09	5.12506e-09
    21	1.20399e-10	5.005e-09	5.1254e-09
    22	1.20742e-10	5.005e-09	5.12574e-09
    23	1.21084e-10	5.005e-09	5.12608e-09
    24	1.21424e-10	5.005e-09	5.12642e-09
    25	1.21764e-10	5.005e-09	5.12676e-09


Date: Sun Jan 14 16:40:22 2024
Total elapsed time: 3.360 seconds.

tnom = 27
temp = 27
method = modified trap
totiter = 13319
traniter = 13310
tranpoints = 6627
accept = 6602
rejected = 25
matrix size = 6
fillins = 0
solver = Normal
Avg thread counts: 1.2/1.4/1.4/1.2
Matrix Compiler1:      11 opcodes  0.2/[0.1]/0.2
Matrix Compiler2: off  [0.1]/0.4/0.1

