Circuit: * D:\Disco D\universita\magistrale\progettazione-low-power\progetti\progetto-1\ltspice\models\minimum-inverter\get_sizing\minimum_inverter_sizing_analysis.asc

WARNING: Node N001 is floating.

WARNING: Less than two connections to node n001.  This node is used by m1.
Warning: Pd = 0 is less than W.
Warning: Ps = 0 is less than W.
Warning: Pd = 0 is less than W.
Warning: Ps = 0 is less than W.
Direct Newton iteration for .op point succeeded.
.step w_min_pmos_analysis=1.2e-07
.step w_min_pmos_analysis=1.3e-07
.step w_min_pmos_analysis=1.4e-07
.step w_min_pmos_analysis=1.5e-07
.step w_min_pmos_analysis=1.6e-07
.step w_min_pmos_analysis=1.7e-07
.step w_min_pmos_analysis=1.8e-07
.step w_min_pmos_analysis=1.9e-07
.step w_min_pmos_analysis=2e-07
.step w_min_pmos_analysis=2.1e-07
.step w_min_pmos_analysis=2.2e-07
.step w_min_pmos_analysis=2.3e-07
.step w_min_pmos_analysis=2.4e-07


Measurement: w_min_pmos_analysis_values
  step	w_min_pmos_analysis
     1	1.2e-07
     2	1.3e-07
     3	1.4e-07
     4	1.5e-07
     5	1.6e-07
     6	1.7e-07
     7	1.8e-07
     8	1.9e-07
     9	2e-07
    10	2.1e-07
    11	2.2e-07
    12	2.3e-07
    13	2.4e-07

Measurement: rise_delay_connected
  step	rise_delay_connected	FROM	TO
     1	1.82386e-10	1.0015e-08	1.01974e-08
     2	1.66571e-10	1.0015e-08	1.01816e-08
     3	1.52841e-10	1.0015e-08	1.01678e-08
     4	1.42393e-10	1.0015e-08	1.01574e-08
     5	1.33295e-10	1.0015e-08	1.01483e-08
     6	1.25221e-10	1.0015e-08	1.01402e-08
     7	1.17958e-10	1.0015e-08	1.0133e-08
     8	1.11328e-10	1.0015e-08	1.01263e-08
     9	1.05227e-10	1.0015e-08	1.01202e-08
    10	1.00542e-10	1.0015e-08	1.01155e-08
    11	9.6406e-11	1.0015e-08	1.01114e-08
    12	9.26392e-11	1.0015e-08	1.01076e-08
    13	8.91852e-11	1.0015e-08	1.01042e-08

Measurement: fall_delay_connected
  step	fall_delay_connected	FROM	TO
     1	1.15567e-10	5.005e-09	5.12057e-09
     2	1.15956e-10	5.005e-09	5.12096e-09
     3	1.16344e-10	5.005e-09	5.12134e-09
     4	1.1673e-10	5.005e-09	5.12173e-09
     5	1.17114e-10	5.005e-09	5.12211e-09
     6	1.17497e-10	5.005e-09	5.1225e-09
     7	1.17878e-10	5.005e-09	5.12288e-09
     8	1.18258e-10	5.005e-09	5.12326e-09
     9	1.18636e-10	5.005e-09	5.12364e-09
    10	1.19013e-10	5.005e-09	5.12401e-09
    11	1.19389e-10	5.005e-09	5.12439e-09
    12	1.19763e-10	5.005e-09	5.12476e-09
    13	1.20136e-10	5.005e-09	5.12514e-09


Date: Mon Nov 13 09:58:05 2023
Total elapsed time: 2.871 seconds.

tnom = 27
temp = 27
method = modified trap
totiter = 2607
traniter = 2599
tranpoints = 1228
accept = 1174
rejected = 54
matrix size = 6
fillins = 0
solver = Normal
Avg thread counts: 2.1/3.2/3.2/2.1
Matrix Compiler1:      11 opcodes  0.4/[0.2]/0.3
Matrix Compiler2: 448 bytes object code size  0.2/0.3/[0.2]

