Circuit: * D:\Disco D\universita\magistrale\progettazione-low-power\progetti\progetto-1\ltspice\models\minimum-inverter\disconnected\minimum_inverter_disconnected.asc

WARNING: Node N001 is floating.

Warning: Pd = 0 is less than W.
Warning: Ps = 0 is less than W.
Warning: Pd = 0 is less than W.
Warning: Ps = 0 is less than W.
Direct Newton iteration for .op point succeeded.
.step run=1
.step run=2


Measurement: energy_disconnected
  step	INTEG(v(supply)*i(vsupply))	FROM	TO
     1	-4.77294e-16	1.8e-08	2.2e-08
     2	-4.77294e-16	1.8e-08	2.2e-08

Measurement: rise_delay_disconnected
  step	rise_delay_disconnected	FROM	TO
     1	8.14506e-12	1.0015e-08	1.00231e-08
     2	8.14506e-12	1.0015e-08	1.00231e-08

Measurement: fall_delay_disconnected
  step	fall_delay_disconnected	FROM	TO
     1	7.56811e-12	5.005e-09	5.01257e-09
     2	7.56811e-12	5.005e-09	5.01257e-09


Date: Tue Dec 19 23:10:07 2023
Total elapsed time: 0.167 seconds.

tnom = 27
temp = 27
method = modified trap
totiter = 2693
traniter = 2687
tranpoints = 1227
accept = 1174
rejected = 53
matrix size = 9
fillins = 0
solver = Normal
Avg thread counts: 3.3/3.2/3.2/2.0
Matrix Compiler1:      21 opcodes  0.1/[0.1]/0.1
Matrix Compiler2: 583 bytes object code size  0.1/0.2/[0.1]

