Circuit: * D:\Disco D\universita\magistrale\progettazione-low-power\progetti\progetto-1\ltspice\minimum-inverter\disconnected\minimum_inverter_disconnected.asc

WARNING: Node N001 is floating.

Warning: Pd = 0 is less than W.
Warning: Ps = 0 is less than W.
Warning: Pd = 0 is less than W.
Warning: Ps = 0 is less than W.
Direct Newton iteration for .op point succeeded.
.step run=1
.step run=2


Measurement: energy_disconnected
  step	INTEG(v(supply)*i(vsupply))	FROM	TO
     1	-5.211e-16	1.8e-08	2.2e-08
     2	-5.211e-16	1.8e-08	2.2e-08

Measurement: rise_delay_disconnected
  step	rise_delay_disconnected	FROM	TO
     1	7.86338e-12	1.0015e-08	1.00229e-08
     2	7.86338e-12	1.0015e-08	1.00229e-08

Measurement: fall_delay_disconnected
  step	fall_delay_disconnected	FROM	TO
     1	7.97475e-12	5.005e-09	5.01297e-09
     2	7.97475e-12	5.005e-09	5.01297e-09


Date: Wed Nov  8 00:25:06 2023
Total elapsed time: 0.277 seconds.

tnom = 27
temp = 27
method = modified trap
totiter = 2760
traniter = 2754
tranpoints = 1255
accept = 1202
rejected = 53
matrix size = 9
fillins = 0
solver = Normal
Avg thread counts: 2.0/3.1/3.2/2.0
Matrix Compiler1: off  [0.2]/0.2/0.3
Matrix Compiler2: off  [0.1]/0.3/0.2

