Circuit: * D:\Disco D\universita\magistrale\progettazione-low-power\progetti\progetto-1\ltspice\buffer-optimized\buffer_optimized.asc

Warning: Pd = 0 is less than W.
Warning: Ps = 0 is less than W.
Warning: Pd = 0 is less than W.
Warning: Ps = 0 is less than W.
Warning: Pd = 0 is less than W.
Warning: Ps = 0 is less than W.
Warning: Pd = 0 is less than W.
Warning: Ps = 0 is less than W.
Warning: Pd = 0 is less than W.
Warning: Ps = 0 is less than W.
Warning: Pd = 0 is less than W.
Warning: Ps = 0 is less than W.
Warning: Pd = 0 is less than W.
Warning: Ps = 0 is less than W.
Warning: Pd = 0 is less than W.
Warning: Ps = 0 is less than W.
Direct Newton iteration for .op point succeeded.
.step index=1
.step index=2
.step index=3
.step index=4
.step index=5
.step index=6
.step index=7
.step index=8
.step index=9
.step index=10
.step index=11
.step index=12


Measurement: s1_values
  step	s1
     1	3.682
     2	3.682
     3	3.682
     4	3.68292
     5	3.68292
     6	3.68292
     7	3.68292
     8	3.68292
     9	3.68292
    10	3.68292
    11	3.68292
    12	3.68292

Measurement: s2_values
  step	s2
     1	13.5683
     2	13.5683
     3	13.5683
     4	13.5683
     5	13.5683
     6	13.5683
     7	13.5683
     8	13.5683
     9	13.5683
    10	13.5683
    11	13.5683
    12	13.5683


Date: Thu Nov  2 20:23:08 2023
Total elapsed time: 1.566 seconds.

tnom = 27
temp = 27
method = modified trap
totiter = 3089
traniter = 3077
tranpoints = 1324
accept = 1226
rejected = 98
matrix size = 10
fillins = 0
solver = Normal
Avg thread counts: 2.6/3.0/3.1/1.9
Matrix Compiler1:      23 opcodes  0.2/[0.1]/0.1
Matrix Compiler2: 788 bytes object code size  0.2/0.2/[0.1]

