Circuit: * D:\Disco D\universita\magistrale\progettazione-low-power\progetti\progetto-1\ltspice\minimum-inverter\connected\minimum_inverter_connected.asc

Warning: Pd = 0 is less than W.
Warning: Ps = 0 is less than W.
Warning: Pd = 0 is less than W.
Warning: Ps = 0 is less than W.
Direct Newton iteration for .op point succeeded.
.step run=1
.step run=2


Measurement: energy_connected
  step	INTEG(v(supply)*i(vsupply))	FROM	TO
     1	-1.3109e-15	1.8e-08	2.2e-08
     2	-1.3109e-15	1.8e-08	2.2e-08

Measurement: rise_delay_connected
  step	rise_delay_connected	FROM	TO
     1	2.03948e-11	1.0015e-08	1.00354e-08
     2	2.03948e-11	1.0015e-08	1.00354e-08

Measurement: fall_delay_connected
  step	fall_delay_connected	FROM	TO
     1	2.05308e-11	5.005e-09	5.02553e-09
     2	2.05308e-11	5.005e-09	5.02553e-09


Date: Sun Nov  5 23:38:36 2023
Total elapsed time: 0.325 seconds.

tnom = 27
temp = 27
method = modified trap
totiter = 3148
traniter = 3134
tranpoints = 1253
accept = 1198
rejected = 55
matrix size = 8
fillins = 0
solver = Normal
Avg thread counts: 3.2/3.2/3.2/1.9
Matrix Compiler1:      17 opcodes  0.1/[0.1]/0.1
Matrix Compiler2:      47 opcodes  0.1/[0.1]/0.2

