Circuit: * D:\Disco D\universita\magistrale\progettazione-low-power\progetti\progetto-1\ltspice\buffer\standard\buffer.asc

Warning: Pd = 0 is less than W.
Warning: Ps = 0 is less than W.
Warning: Pd = 0 is less than W.
Warning: Ps = 0 is less than W.
Warning: Pd = 0 is less than W.
Warning: Ps = 0 is less than W.
Warning: Pd = 0 is less than W.
Warning: Ps = 0 is less than W.
Warning: Pd = 0 is less than W.
Warning: Ps = 0 is less than W.
Warning: Pd = 0 is less than W.
Warning: Ps = 0 is less than W.
Warning: Pd = 0 is less than W.
Warning: Ps = 0 is less than W.
Warning: Pd = 0 is less than W.
Warning: Ps = 0 is less than W.
Direct Newton iteration for .op point succeeded.
.step run=1
.step run=2
.step run=3
.step run=4
.step run=5
.step run=6
.step run=7
.step run=8
.step run=9
.step run=10
.step run=11
.step run=12
.step run=13
.step run=14
.step run=15
.step run=16
.step run=17
.step run=18
.step run=19
.step run=20
.step run=21
.step run=22
.step run=23
.step run=24
.step run=25
.step run=26
.step run=27
.step run=28
.step run=29
.step run=30
.step run=31
.step run=32
.step run=33
.step run=34
.step run=35
.step run=36
.step run=37
.step run=38
.step run=39
.step run=40
.step run=41
.step run=42
.step run=43
.step run=44
.step run=45
.step run=46
.step run=47
.step run=48
.step run=49
.step run=50
.step run=51
.step run=52
.step run=53
.step run=54
.step run=55
.step run=56
.step run=57
.step run=58
.step run=59
.step run=60
.step run=61
.step run=62
.step run=63
.step run=64
.step run=65
.step run=66
.step run=67
.step run=68
.step run=69
.step run=70
.step run=71
.step run=72
.step run=73
.step run=74
.step run=75
.step run=76
.step run=77
.step run=78
.step run=79
.step run=80
.step run=81
.step run=82
.step run=83
.step run=84
.step run=85
.step run=86
.step run=87
.step run=88
.step run=89
.step run=90
.step run=91
.step run=92
.step run=93
.step run=94
.step run=95
.step run=96
.step run=97
.step run=98
.step run=99
.step run=100


Measurement: s1_values
  step	s1
     1	4.38151
     2	3.87924
     3	5.47963
     4	4.08121
     5	3.18671
     6	3.67415
     7	3.26728
     8	4.64299
     9	3.11274
    10	5.81564
    11	5.36006
    12	1.85403
    13	2.25761
    14	6.99817
    15	2.78368
    16	1.55574
    17	6.51274
    18	5.1471
    19	2.23215
    20	6.69494
    21	3.31141
    22	3.16803
    23	5.81729
    24	3.07337
    25	1.38124
    26	6.6975
    27	2.81829
    28	5.09912
    29	4.49229
    30	3.85159
    31	3.43355
    32	5.53511
    33	3.20685
    34	4.9779
    35	6.52831
    36	3.24989
    37	2.63134
    38	4.40367
    39	3.38594
    40	6.96777
    41	2.1644
    42	2.18711
    43	5.45875
    44	3.01788
    45	5.24799
    46	1.86685
    47	6.11576
    48	1.08551
    49	5.11689
    50	2.21165
    51	2.39457
    52	1.96115
    53	6.54881
    54	6.97107
    55	4.75103
    56	1.2906
    57	5.6144
    58	4.62487
    59	4.80834
    60	5.32545
    61	5.42744
    62	2.13364
    63	3.10779
    64	4.67229
    65	1.89468
    66	4.68822
    67	6.85919
    68	2.04355
    69	5.4659
    70	1.45961
    71	3.68954
    72	4.00723
    73	2.8833
    74	5.35017
    75	1.39442
    76	6.73669
    77	2.93274
    78	2.74175
    79	1.68722
    80	5.76016
    81	4.19291
    82	5.24726
    83	3.949
    84	5.71218
    85	4.78509
    86	5.45967
    87	2.97906
    88	6.08243
    89	6.12381
    90	4.70287
    91	4.74462
    92	4.966
    93	4.66662
    94	4.78106
    95	6.13114
    96	2.81372
    97	1.66378
    98	5.72866
    99	4.69134
   100	6.18149

Measurement: s2_values
  step	s2
     1	4.03003
     2	18.0402
     3	23.7482
     4	21.052
     5	6.19367
     6	27.7246
     7	4.21387
     8	18.4423
     9	14.8189
    10	22.7996
    11	25.0233
    12	16.9445
    13	24.6937
    14	27.9231
    15	10.3891
    16	13.0208
    17	4.21094
    18	18.1098
    19	15.6385
    20	14.9911
    21	18.3771
    22	17.7377
    23	14.2037
    24	22.0372
    25	15.8055
    26	7.5399
    27	20.6294
    28	27.1987
    29	23.7203
    30	23.6127
    31	21.5684
    32	20.3738
    33	6.95248
    34	16.4083
    35	26.7841
    36	15.3214
    37	14.9464
    38	21.7405
    39	24.1466
    40	4.6592
    41	16.7519
    42	19.7827
    43	6.63826
    44	10.8659
    45	24.0309
    46	10.0654
    47	23.3497
    48	17.277
    49	22.0533
    50	14.4813
    51	14.4805
    52	19.0884
    53	20.6983
    54	8.2804
    55	6.34016
    56	26.3564
    57	9.45524
    58	19.0737
    59	18.3478
    60	18.9946
    61	8.4225
    62	9.82879
    63	18.0307
    64	21.7779
    65	23.3087
    66	25.8774
    67	20.0266
    68	11.3398
    69	24.4293
    70	5.90435
    71	17.0822
    72	15.1734
    73	21.712
    74	24.9604
    75	7.05356
    76	18.6313
    77	19.6926
    78	9.45012
    79	19.9072
    80	15.9235
    81	20.5159
    82	4.14136
    83	24.7179
    84	13.1226
    85	26.9372
    86	7.15903
    87	4.66799
    88	7.15903
    89	21.3194
    90	20.9898
    91	8.05408
    92	12.8216
    93	16.6369
    94	7.47545
    95	7.27696
    96	17.7604
    97	11.4724
    98	10.822
    99	21.8511
   100	9.48381

Measurement: energy_connected
  step	INTEG(v(supply)*i(vsupply))	FROM	TO
     1	-4.28417e-14	1.3e-08	2.2e-08
     2	-7.19249e-14	1.3e-08	2.2e-08
     3	-9.5567e-14	1.3e-08	2.2e-08
     4	-8.38814e-14	1.3e-08	2.2e-08
     5	-4.28384e-14	1.3e-08	2.2e-08
     6	-1.22573e-13	1.3e-08	2.2e-08
     7	-4.03194e-14	1.3e-08	2.2e-08
     8	-7.37495e-14	1.3e-08	2.2e-08
     9	-6.13425e-14	1.3e-08	2.2e-08
    10	-9.25725e-14	1.3e-08	2.2e-08
    11	-1.01004e-13	1.3e-08	2.2e-08
    12	-8.00253e-14	1.3e-08	2.2e-08
    13	-1.28842e-13	1.3e-08	2.2e-08
    14	-1.18488e-13	1.3e-08	2.2e-08
    15	-4.97693e-14	1.3e-08	2.2e-08
    16	-6.20388e-14	1.3e-08	2.2e-08
    17	-5.09883e-14	1.3e-08	2.2e-08
    18	-7.37085e-14	1.3e-08	2.2e-08
    19	-6.78206e-14	1.3e-08	2.2e-08
    20	-7.1133e-14	1.3e-08	2.2e-08
    21	-7.40153e-14	1.3e-08	2.2e-08
    22	-7.18465e-14	1.3e-08	2.2e-08
    23	-6.51866e-14	1.3e-08	2.2e-08
    24	-9.38994e-14	1.3e-08	2.2e-08
    25	-8.43499e-14	1.3e-08	2.2e-08
    26	-5.65654e-14	1.3e-08	2.2e-08
    27	-8.8367e-14	1.3e-08	2.2e-08
    28	-1.11726e-13	1.3e-08	2.2e-08
    29	-9.53852e-14	1.3e-08	2.2e-08
    30	-9.6942e-14	1.3e-08	2.2e-08
    31	-8.83374e-14	1.3e-08	2.2e-08
    32	-8.24928e-14	1.3e-08	2.2e-08
    33	-4.40729e-14	1.3e-08	2.2e-08
    34	-6.80871e-14	1.3e-08	2.2e-08
    35	-1.112e-13	1.3e-08	2.2e-08
    36	-6.28365e-14	1.3e-08	2.2e-08
    37	-6.27714e-14	1.3e-08	2.2e-08
    38	-8.63171e-14	1.3e-08	2.2e-08
    39	-1.03115e-13	1.3e-08	2.2e-08
    40	-5.35408e-14	1.3e-08	2.2e-08
    41	-7.41505e-14	1.3e-08	2.2e-08
    42	-9.24302e-14	1.3e-08	2.2e-08
    43	-5.00108e-14	1.3e-08	2.2e-08
    44	-5.101e-14	1.3e-08	2.2e-08
    45	-9.64678e-14	1.3e-08	2.2e-08
    46	-4.91295e-14	1.3e-08	2.2e-08
    47	-9.53498e-14	1.3e-08	2.2e-08
    48	-1.16563e-13	1.3e-08	2.2e-08
    49	-8.83424e-14	1.3e-08	2.2e-08
    50	-6.28054e-14	1.3e-08	2.2e-08
    51	-6.18433e-14	1.3e-08	2.2e-08
    52	-9.24915e-14	1.3e-08	2.2e-08
    53	-8.72295e-14	1.3e-08	2.2e-08
    54	-5.91217e-14	1.3e-08	2.2e-08
    55	-4.71248e-14	1.3e-08	2.2e-08
    56	-2.2249e-13	1.3e-08	2.2e-08
    57	-5.48194e-14	1.3e-08	2.2e-08
    58	-7.59315e-14	1.3e-08	2.2e-08
    59	-7.37207e-14	1.3e-08	2.2e-08
    60	-7.70925e-14	1.3e-08	2.2e-08
    61	-5.23955e-14	1.3e-08	2.2e-08
    62	-4.82908e-14	1.3e-08	2.2e-08
    63	-7.33234e-14	1.3e-08	2.2e-08
    64	-8.66589e-14	1.3e-08	2.2e-08
    65	-1.30469e-13	1.3e-08	2.2e-08
    66	-1.05633e-13	1.3e-08	2.2e-08
    67	-8.64643e-14	1.3e-08	2.2e-08
    68	-5.23199e-14	1.3e-08	2.2e-08
    69	-9.84188e-14	1.3e-08	2.2e-08
    70	-4.05103e-14	1.3e-08	2.2e-08
    71	-6.84377e-14	1.3e-08	2.2e-08
    72	-6.25685e-14	1.3e-08	2.2e-08
    73	-9.39414e-14	1.3e-08	2.2e-08
    74	-1.00717e-13	1.3e-08	2.2e-08
    75	-4.27039e-14	1.3e-08	2.2e-08
    76	-8.15668e-14	1.3e-08	2.2e-08
    77	-8.21736e-14	1.3e-08	2.2e-08
    78	-4.78002e-14	1.3e-08	2.2e-08
    79	-1.07513e-13	1.3e-08	2.2e-08
    80	-6.93118e-14	1.3e-08	2.2e-08
    81	-8.14796e-14	1.3e-08	2.2e-08
    82	-4.58885e-14	1.3e-08	2.2e-08
    83	-1.02229e-13	1.3e-08	2.2e-08
    84	-6.22868e-14	1.3e-08	2.2e-08
    85	-1.10965e-13	1.3e-08	2.2e-08
    86	-5.06867e-14	1.3e-08	2.2e-08
    87	-4.03272e-14	1.3e-08	2.2e-08
    88	-5.32195e-14	1.3e-08	2.2e-08
    89	-8.7734e-14	1.3e-08	2.2e-08
    90	-8.32103e-14	1.3e-08	2.2e-08
    91	-4.94879e-14	1.3e-08	2.2e-08
    92	-5.88616e-14	1.3e-08	2.2e-08
    93	-6.79924e-14	1.3e-08	2.2e-08
    94	-4.87901e-14	1.3e-08	2.2e-08
    95	-5.35481e-14	1.3e-08	2.2e-08
    96	-7.36182e-14	1.3e-08	2.2e-08
    97	-5.42565e-14	1.3e-08	2.2e-08
    98	-5.76544e-14	1.3e-08	2.2e-08
    99	-8.67849e-14	1.3e-08	2.2e-08
   100	-5.7246e-14	1.3e-08	2.2e-08

Measurement: rise_delay_connected
  step	rise_delay_connected	FROM	TO
     1	2.32682e-10	1.0015e-08	1.02477e-08
     2	1.65643e-10	1.0015e-08	1.01806e-08
     3	1.74782e-10	1.0015e-08	1.01898e-08
     4	1.69739e-10	1.0015e-08	1.01847e-08
     5	1.80375e-10	1.0015e-08	1.01954e-08
     6	1.85054e-10	1.0015e-08	1.02001e-08
     7	2.16426e-10	1.0015e-08	1.02314e-08
     8	1.66631e-10	1.0015e-08	1.01816e-08
     9	1.64352e-10	1.0015e-08	1.01794e-08
    10	1.75287e-10	1.0015e-08	1.01903e-08
    11	1.75975e-10	1.0015e-08	1.0191e-08
    12	1.98693e-10	1.0015e-08	1.02137e-08
    13	2.10551e-10	1.0015e-08	1.02256e-08
    14	1.86939e-10	1.0015e-08	1.02019e-08
    15	1.63031e-10	1.0015e-08	1.0178e-08
    16	1.98987e-10	1.0015e-08	1.0214e-08
    17	2.51197e-10	1.0015e-08	1.02662e-08
    18	1.68082e-10	1.0015e-08	1.01831e-08
    19	1.79271e-10	1.0015e-08	1.01943e-08
    20	1.79346e-10	1.0015e-08	1.01943e-08
    21	1.68847e-10	1.0015e-08	1.01838e-08
    22	1.68788e-10	1.0015e-08	1.01838e-08
    23	1.71822e-10	1.0015e-08	1.01868e-08
    24	1.79392e-10	1.0015e-08	1.01944e-08
    25	2.27897e-10	1.0015e-08	1.02429e-08
    26	2.01782e-10	1.0015e-08	1.02168e-08
    27	1.8012e-10	1.0015e-08	1.01951e-08
    28	1.78362e-10	1.0015e-08	1.01934e-08
    29	1.73225e-10	1.0015e-08	1.01882e-08
    30	1.75146e-10	1.0015e-08	1.01901e-08
    31	1.74218e-10	1.0015e-08	1.01892e-08
    32	1.71646e-10	1.0015e-08	1.01866e-08
    33	1.74164e-10	1.0015e-08	1.01892e-08
    34	1.66387e-10	1.0015e-08	1.01814e-08
    35	1.83014e-10	1.0015e-08	1.0198e-08
    36	1.64304e-10	1.0015e-08	1.01793e-08
    37	1.6928e-10	1.0015e-08	1.01843e-08
    38	1.70616e-10	1.0015e-08	1.01856e-08
    39	1.8018e-10	1.0015e-08	1.01952e-08
    40	2.45118e-10	1.0015e-08	1.02601e-08
    41	1.84803e-10	1.0015e-08	1.01998e-08
    42	1.94976e-10	1.0015e-08	1.021e-08
    43	1.95215e-10	1.0015e-08	1.02102e-08
    44	1.6235e-10	1.0015e-08	1.01773e-08
    45	1.74361e-10	1.0015e-08	1.01894e-08
    46	1.76624e-10	1.0015e-08	1.01916e-08
    47	1.77414e-10	1.0015e-08	1.01924e-08
    48	2.83369e-10	1.0015e-08	1.02984e-08
    49	1.71649e-10	1.0015e-08	1.01866e-08
    50	1.76625e-10	1.0015e-08	1.01916e-08
    51	1.72372e-10	1.0015e-08	1.01874e-08
    52	2.02326e-10	1.0015e-08	1.02173e-08
    53	1.78367e-10	1.0015e-08	1.01934e-08
    54	2.00199e-10	1.0015e-08	1.02152e-08
    55	1.91172e-10	1.0015e-08	1.02062e-08
    56	3.20354e-10	1.0015e-08	1.03354e-08
    57	1.79524e-10	1.0015e-08	1.01945e-08
    58	1.67211e-10	1.0015e-08	1.01822e-08
    59	1.66982e-10	1.0015e-08	1.0182e-08
    60	1.69535e-10	1.0015e-08	1.01845e-08
    61	1.82236e-10	1.0015e-08	1.01972e-08
    62	1.70088e-10	1.0015e-08	1.01851e-08
    63	1.69984e-10	1.0015e-08	1.0185e-08
    64	1.70457e-10	1.0015e-08	1.01855e-08
    65	2.2556e-10	1.0015e-08	1.02406e-08
    66	1.76375e-10	1.0015e-08	1.01914e-08
    67	1.80477e-10	1.0015e-08	1.01955e-08
    68	1.73771e-10	1.0015e-08	1.01888e-08
    69	1.75556e-10	1.0015e-08	1.01906e-08
    70	1.94402e-10	1.0015e-08	1.02094e-08
    71	1.65047e-10	1.0015e-08	1.018e-08
    72	1.62656e-10	1.0015e-08	1.01777e-08
    73	1.81593e-10	1.0015e-08	1.01966e-08
    74	1.75812e-10	1.0015e-08	1.01908e-08
    75	1.9234e-10	1.0015e-08	1.02073e-08
    76	1.79264e-10	1.0015e-08	1.01943e-08
    77	1.75643e-10	1.0015e-08	1.01906e-08
    78	1.64099e-10	1.0015e-08	1.01791e-08
    79	2.2378e-10	1.0015e-08	1.02388e-08
    80	1.70965e-10	1.0015e-08	1.0186e-08
    81	1.68834e-10	1.0015e-08	1.01838e-08
    82	2.38755e-10	1.0015e-08	1.02538e-08
    83	1.76704e-10	1.0015e-08	1.01917e-08
    84	1.71885e-10	1.0015e-08	1.01869e-08
    85	1.77951e-10	1.0015e-08	1.0193e-08
    86	1.90434e-10	1.0015e-08	1.02054e-08
    87	2.03065e-10	1.0015e-08	1.02181e-08
    88	1.97664e-10	1.0015e-08	1.02127e-08
    89	1.76004e-10	1.0015e-08	1.0191e-08
    90	1.69499e-10	1.0015e-08	1.01845e-08
    91	1.77433e-10	1.0015e-08	1.01924e-08
    92	1.66869e-10	1.0015e-08	1.01819e-08
    93	1.65311e-10	1.0015e-08	1.01803e-08
    94	1.81318e-10	1.0015e-08	1.01963e-08
    95	1.97167e-10	1.0015e-08	1.02122e-08
    96	1.72795e-10	1.0015e-08	1.01878e-08
    97	1.87352e-10	1.0015e-08	1.02024e-08
    98	1.76128e-10	1.0015e-08	1.01911e-08
    99	1.7057e-10	1.0015e-08	1.01856e-08
   100	1.84788e-10	1.0015e-08	1.01998e-08

Measurement: fall_delay_connected
  step	fall_delay_connected	FROM	TO
     1	2.30254e-10	5.005e-09	5.23525e-09
     2	1.67219e-10	5.005e-09	5.17222e-09
     3	1.7743e-10	5.005e-09	5.18243e-09
     4	1.71505e-10	5.005e-09	5.1765e-09
     5	1.78557e-10	5.005e-09	5.18356e-09
     6	1.86482e-10	5.005e-09	5.19148e-09
     7	2.12103e-10	5.005e-09	5.2171e-09
     8	1.68618e-10	5.005e-09	5.17362e-09
     9	1.65382e-10	5.005e-09	5.17038e-09
    10	1.7805e-10	5.005e-09	5.18305e-09
    11	1.7848e-10	5.005e-09	5.18348e-09
    12	1.97627e-10	5.005e-09	5.20263e-09
    13	2.10341e-10	5.005e-09	5.21534e-09
    14	1.89993e-10	5.005e-09	5.19499e-09
    15	1.63513e-10	5.005e-09	5.16851e-09
    16	1.96717e-10	5.005e-09	5.20172e-09
    17	2.5095e-10	5.005e-09	5.25595e-09
    18	1.70487e-10	5.005e-09	5.17549e-09
    19	1.7926e-10	5.005e-09	5.18426e-09
    20	1.82066e-10	5.005e-09	5.18707e-09
    21	1.69877e-10	5.005e-09	5.17488e-09
    22	1.69756e-10	5.005e-09	5.17476e-09
    23	1.74299e-10	5.005e-09	5.1793e-09
    24	1.80243e-10	5.005e-09	5.18524e-09
    25	2.24352e-10	5.005e-09	5.22935e-09
    26	2.02038e-10	5.005e-09	5.20704e-09
    27	1.80705e-10	5.005e-09	5.1857e-09
    28	1.80781e-10	5.005e-09	5.18578e-09
    29	1.75331e-10	5.005e-09	5.18033e-09
    30	1.76781e-10	5.005e-09	5.18178e-09
    31	1.75333e-10	5.005e-09	5.18033e-09
    32	1.74347e-10	5.005e-09	5.17935e-09
    33	1.72853e-10	5.005e-09	5.17785e-09
    34	1.68501e-10	5.005e-09	5.1735e-09
    35	1.85906e-10	5.005e-09	5.19091e-09
    36	1.65242e-10	5.005e-09	5.17024e-09
    37	1.69685e-10	5.005e-09	5.17469e-09
    38	1.72374e-10	5.005e-09	5.17737e-09
    39	1.81418e-10	5.005e-09	5.18642e-09
    40	2.45208e-10	5.005e-09	5.25021e-09
    41	1.84716e-10	5.005e-09	5.18972e-09
    42	1.9452e-10	5.005e-09	5.19952e-09
    43	1.96144e-10	5.005e-09	5.20114e-09
    44	1.626e-10	5.005e-09	5.1676e-09
    45	1.76939e-10	5.005e-09	5.18194e-09
    46	1.752e-10	5.005e-09	5.1802e-09
    47	1.80232e-10	5.005e-09	5.18523e-09
    48	2.7523e-10	5.005e-09	5.28023e-09
    49	1.74143e-10	5.005e-09	5.17914e-09
    50	1.76468e-10	5.005e-09	5.18147e-09
    51	1.7249e-10	5.005e-09	5.17749e-09
    52	2.01418e-10	5.005e-09	5.20642e-09
    53	1.81307e-10	5.005e-09	5.18631e-09
    54	2.004e-10	5.005e-09	5.2054e-09
    55	1.90717e-10	5.005e-09	5.19572e-09
    56	3.13113e-10	5.005e-09	5.31811e-09
    57	1.7959e-10	5.005e-09	5.18459e-09
    58	1.69244e-10	5.005e-09	5.17424e-09
    59	1.69133e-10	5.005e-09	5.17413e-09
    60	1.72095e-10	5.005e-09	5.1771e-09
    61	1.82333e-10	5.005e-09	5.18733e-09
    62	1.69501e-10	5.005e-09	5.1745e-09
    63	1.70855e-10	5.005e-09	5.17586e-09
    64	1.72689e-10	5.005e-09	5.17769e-09
    65	2.24056e-10	5.005e-09	5.22906e-09
    66	1.78596e-10	5.005e-09	5.1836e-09
    67	1.83491e-10	5.005e-09	5.18849e-09
    68	1.72976e-10	5.005e-09	5.17798e-09
    69	1.7814e-10	5.005e-09	5.18314e-09
    70	1.91166e-10	5.005e-09	5.19617e-09
    71	1.66146e-10	5.005e-09	5.17115e-09
    72	1.64068e-10	5.005e-09	5.16907e-09
    73	1.8247e-10	5.005e-09	5.18747e-09
    74	1.78373e-10	5.005e-09	5.18337e-09
    75	1.89574e-10	5.005e-09	5.19457e-09
    76	1.82092e-10	5.005e-09	5.18709e-09
    77	1.76543e-10	5.005e-09	5.18154e-09
    78	1.64664e-10	5.005e-09	5.16966e-09
    79	2.21821e-10	5.005e-09	5.22682e-09
    80	1.736e-10	5.005e-09	5.1786e-09
    81	1.7057e-10	5.005e-09	5.17557e-09
    82	2.36938e-10	5.005e-09	5.24194e-09
    83	1.78392e-10	5.005e-09	5.18339e-09
    84	1.74028e-10	5.005e-09	5.17903e-09
    85	1.80245e-10	5.005e-09	5.18524e-09
    86	1.91955e-10	5.005e-09	5.19695e-09
    87	1.98751e-10	5.005e-09	5.20375e-09
    88	1.9801e-10	5.005e-09	5.20301e-09
    89	1.78675e-10	5.005e-09	5.18368e-09
    90	1.71736e-10	5.005e-09	5.17674e-09
    91	1.7861e-10	5.005e-09	5.18361e-09
    92	1.6818e-10	5.005e-09	5.17318e-09
    93	1.67096e-10	5.005e-09	5.1721e-09
    94	1.82255e-10	5.005e-09	5.18725e-09
    95	1.97463e-10	5.005e-09	5.20246e-09
    96	1.73568e-10	5.005e-09	5.17857e-09
    97	1.85468e-10	5.005e-09	5.19047e-09
    98	1.77174e-10	5.005e-09	5.18217e-09
    99	1.72819e-10	5.005e-09	5.17782e-09
   100	1.85593e-10	5.005e-09	5.19059e-09


Date: Wed Nov  8 00:24:53 2023
Total elapsed time: 14.421 seconds.

tnom = 27
temp = 27
method = modified trap
totiter = 3089
traniter = 3077
tranpoints = 1320
accept = 1222
rejected = 98
matrix size = 10
fillins = 0
solver = Normal
Avg thread counts: 2.6/3.0/3.1/1.9
Matrix Compiler1:      23 opcodes  0.1/[0.1]/0.1
Matrix Compiler2: off  [0.1]/0.2/0.2

